      15
 i =   105000, time =    52500.000, E =       -29.4255862833
  C        -4.3949155848       -8.6445085429       -7.4432503227
  O        -4.0621010917       -7.6135799905       -6.9263507170
  O        -6.9831221462       -7.9579236836       -7.1030329697
  H        -8.5436998495       -6.0891789571       -8.6573180735
  H        -4.5637198204       -9.7187989937      -19.3034387964
  C        -4.5910594940        1.2975810842        1.1197998100
  H        -9.9455034028        1.6435464038       13.3752710255
  H        -4.5643644887        0.3975725257       13.1183811204
  H        -4.7424320759        3.2453865028       11.1258834974
  N        -4.7433223629        2.3924252679        0.4433573097
  C        -8.9525587915        3.2053238700       12.0387024660
  C        -8.2995328091        2.2946226835        2.7541858745
  O        -9.0153814347        1.4500586521        3.6018665817
  H       -10.0292139901        3.2134794845        2.1625263561
  H        -6.5152840337        2.8624960252        2.6457472887